Version 4
SHEET 1 2632 796
WIRE 352 -64 352 -80
WIRE 352 -64 64 -64
WIRE 624 -64 352 -64
WIRE 64 0 64 -64
WIRE 144 0 64 0
WIRE 320 0 144 0
WIRE 624 0 624 -64
WIRE 704 0 624 0
WIRE 880 0 704 0
WIRE 96 48 64 48
WIRE 656 48 624 48
WIRE 320 64 320 0
WIRE 320 64 304 64
WIRE 880 64 880 0
WIRE 880 64 864 64
WIRE 96 80 -32 80
WIRE 656 80 528 80
WIRE -32 96 -32 80
WIRE 64 128 64 48
WIRE 144 128 144 96
WIRE 144 128 64 128
WIRE 320 128 144 128
WIRE 624 128 624 48
WIRE 704 128 704 96
WIRE 704 128 624 128
WIRE 880 128 704 128
WIRE 528 160 496 160
WIRE -32 176 -64 176
WIRE 64 176 64 128
WIRE 880 176 64 176
WIRE 1024 176 960 176
WIRE 1072 176 1024 176
WIRE 1168 176 1136 176
WIRE 1504 176 1392 176
WIRE 1024 192 1024 176
WIRE 1392 192 1392 176
WIRE -32 208 -64 208
WIRE 528 224 496 224
WIRE 624 256 624 128
WIRE 880 256 624 256
WIRE 1024 256 960 256
WIRE 1072 256 1024 256
WIRE 1168 256 1136 256
WIRE 1392 256 1264 256
WIRE 1504 256 1392 256
WIRE -32 288 -32 208
WIRE 64 288 64 176
WIRE 144 288 64 288
WIRE 320 288 144 288
WIRE 528 288 528 224
WIRE 624 288 624 256
WIRE 704 288 624 288
WIRE 880 288 704 288
WIRE 1504 288 1392 288
WIRE 1392 304 1392 288
WIRE 96 336 64 336
WIRE 656 336 624 336
WIRE 320 352 320 288
WIRE 320 352 304 352
WIRE 880 352 880 288
WIRE 880 352 864 352
WIRE 96 368 -32 368
WIRE 656 368 528 368
WIRE 1392 368 1264 368
WIRE 1504 368 1392 368
WIRE 64 416 64 336
WIRE 144 416 144 384
WIRE 144 416 64 416
WIRE 320 416 144 416
WIRE 624 416 624 336
WIRE 704 416 704 384
WIRE 704 416 624 416
WIRE 880 416 704 416
WIRE 64 464 64 416
WIRE 272 464 64 464
WIRE 624 464 624 416
WIRE 624 464 272 464
FLAG 272 464 0
FLAG 1392 256 0
FLAG 64 176 Va
FLAG 624 256 Vb
FLAG -288 592 Va
FLAG -64 592 Vb
FLAG -176 592 0
FLAG 48 592 0
FLAG -288 512 s1
FLAG -176 512 s2
FLAG -64 512 s3
FLAG 48 512 s4
FLAG -64 176 s1
FLAG -64 208 s2
FLAG 496 160 s3
FLAG 496 224 s4
FLAG 1392 368 0
FLAG 160 592 0
FLAG 160 512 in
FLAG 352 -80 in
FLAG -592 -32 0
FLAG -592 0 0
FLAG -384 -16 0
FLAG -496 224 0
FLAG -544 208 0
FLAG -496 128 0
SYMBOL ind2 1152 160 R0
SYMATTR InstName L1
SYMATTR Value 30.93µ
SYMATTR Type ind
SYMBOL cap 1008 192 R0
WINDOW 3 37 29 Left 2
WINDOW 0 36 7 Left 2
SYMATTR Value 400n
SYMATTR InstName C1
SYMBOL cap 1136 160 R90
WINDOW 0 -23 29 VBottom 2
WINDOW 3 -25 3 VTop 2
SYMATTR InstName C2
SYMATTR Value 94n
SYMBOL ind2 1248 160 R0
SYMATTR InstName L3
SYMATTR Value 7.37µ
SYMATTR Type ind
SYMBOL ind 864 192 R270
WINDOW 0 32 56 VTop 2
WINDOW 3 5 56 VBottom 2
SYMATTR InstName L2
SYMATTR Value 1.4µ
SYMBOL cap 1376 192 R0
SYMATTR InstName C3
SYMATTR Value 153.27n
SYMBOL voltage -288 496 R0
WINDOW 3 -12 155 Left 2
WINDOW 123 0 0 Left 0
WINDOW 39 0 0 Left 0
SYMATTR Value PULSE(0 15 {t} 40n 20n {{D}*6.67u-{t}} 6.67u)
SYMATTR InstName V6
SYMBOL voltage -176 496 R0
WINDOW 3 -124 196 Left 2
WINDOW 123 0 0 Left 0
WINDOW 39 0 0 Left 0
SYMATTR Value PULSE(15 0 0 40n 20n {{D}*6.67u+{t}} 6.67u)
SYMATTR InstName V7
SYMBOL voltage -64 496 R0
WINDOW 3 -237 240 Left 2
WINDOW 123 0 0 Left 0
WINDOW 39 0 0 Left 0
SYMATTR Value PULSE(0 15 {3.335u+{t}} 40n 20n {{D}*6.67u-{t}} 6.67u)
SYMATTR InstName V8
SYMBOL voltage 48 496 R0
WINDOW 3 -349 282 Left 2
WINDOW 123 0 0 Left 0
WINDOW 39 0 0 Left 0
SYMATTR Value PULSE(15 0 3.335u 40n 20n {{D}*6.67u+{t}} 6.67u)
SYMATTR InstName V9
SYMBOL res 1488 160 R0
SYMATTR InstName R5
SYMATTR Value 20
SYMBOL ind 864 272 R270
WINDOW 0 32 56 VTop 2
WINDOW 3 5 56 VBottom 2
SYMATTR InstName L6
SYMATTR Value 1.4µ
SYMBOL cap 1136 240 R90
WINDOW 0 58 26 VBottom 2
WINDOW 3 52 1 VTop 2
SYMATTR InstName C4
SYMATTR Value 94n
SYMBOL cap 1376 304 R0
SYMATTR InstName C5
SYMATTR Value 153.27n
SYMBOL res 1488 272 R0
SYMATTR InstName R6
SYMATTR Value 50
SYMBOL ind2 1248 272 R0
SYMATTR InstName L7
SYMATTR Value 7.345µ
SYMATTR Type ind
SYMBOL voltage 160 496 R0
WINDOW 123 0 0 Left 0
WINDOW 39 0 0 Left 0
SYMATTR InstName V1
SYMATTR Value 30
SYMBOL nmos -544 128 R0
SYMATTR InstName M1
SYMATTR Value Si4408DY
SYMBOL diode 896 416 R180
WINDOW 0 24 64 Left 2
WINDOW 3 24 0 Left 2
SYMATTR InstName D1
SYMBOL diode 336 416 R180
WINDOW 0 24 64 Left 2
WINDOW 3 24 0 Left 2
SYMATTR InstName D2
SYMBOL diode 336 128 R180
WINDOW 0 24 64 Left 2
WINDOW 3 24 0 Left 2
SYMATTR InstName D3
SYMBOL diode 896 128 R180
WINDOW 0 24 64 Left 2
WINDOW 3 24 0 Left 2
SYMATTR InstName D4
SYMBOL res -48 80 R0
SYMATTR InstName R1
SYMATTR Value 3.9
SYMBOL res -48 272 R0
SYMATTR InstName R2
SYMATTR Value 3.9
SYMBOL res 512 64 R0
SYMATTR InstName R3
SYMATTR Value 3.9
SYMBOL res 512 272 R0
SYMATTR InstName R4
SYMATTR Value 3.9
SYMBOL nmos 96 0 R0
SYMATTR InstName M2
SYMATTR Value IRF1405
SYMBOL nmos 96 288 R0
SYMATTR InstName M3
SYMATTR Value IRF1405
SYMBOL nmos 656 0 R0
SYMATTR InstName M4
SYMATTR Value IRF1405
SYMBOL nmos 656 288 R0
SYMATTR InstName M5
SYMATTR Value IRF1405
TEXT 1184 128 Left 2 !K2 L1 L7 0.14
TEXT 480 696 Left 2 !.param D=0.5
TEXT 480 664 Left 2 !.tran 0 3.5m 3m
TEXT 1184 96 Left 2 !K1 L1 L3 0.066
TEXT 712 696 Left 2 ;D = duty cycle\nt = delay (mock deadtime)
TEXT 480 536 Left 2 ;Diodes connected across drain and source to reduce ringing
TEXT 480 728 Left 2 !.param t=0
TEXT 1368 96 Left 2 ;change L1 to 30.59 to check L3's Voc
