Version 4
SHEET 1 2632 796
WIRE 256 -64 64 -64
WIRE 624 -64 256 -64
WIRE 64 0 64 -64
WIRE 624 0 624 -64
WIRE 16 80 -32 80
WIRE 576 80 528 80
WIRE 528 160 496 160
WIRE -32 176 -32 160
WIRE -32 176 -64 176
WIRE 64 176 64 96
WIRE 880 176 64 176
WIRE 1024 176 960 176
WIRE 1072 176 1024 176
WIRE 1168 176 1136 176
WIRE 1392 176 1264 176
WIRE 1504 176 1392 176
WIRE 1024 192 1024 176
WIRE 1392 192 1392 176
WIRE -32 208 -64 208
WIRE -32 224 -32 208
WIRE 528 224 496 224
WIRE 624 256 624 96
WIRE 880 256 624 256
WIRE 1024 256 960 256
WIRE 1072 256 1024 256
WIRE 1168 256 1136 256
WIRE 1392 256 1264 256
WIRE 1504 256 1392 256
WIRE 64 288 64 176
WIRE 624 288 624 256
WIRE 1392 288 1264 288
WIRE 1504 288 1392 288
WIRE 1392 304 1392 288
WIRE -32 368 -32 304
WIRE 16 368 -32 368
WIRE 528 368 528 304
WIRE 576 368 528 368
WIRE 1392 368 1264 368
WIRE 1504 368 1392 368
WIRE 272 384 64 384
WIRE 624 384 272 384
FLAG 272 384 0
FLAG 256 -144 0
FLAG 1392 256 0
FLAG 64 176 Va
FLAG 624 256 Vb
FLAG -288 592 Va
FLAG -64 592 Vb
FLAG -176 592 0
FLAG 48 592 0
FLAG -288 512 s1
FLAG -176 512 s2
FLAG -64 512 s3
FLAG 48 512 s4
FLAG -64 176 s1
FLAG -64 208 s2
FLAG 496 160 s3
FLAG 496 224 s4
FLAG 1392 368 0
SYMBOL nmos 16 0 R0
SYMATTR InstName M1
SYMATTR Value IRF1405
SYMBOL voltage 256 -160 R0
WINDOW 3 35 73 Left 2
WINDOW 123 0 0 Left 0
WINDOW 39 0 0 Left 0
SYMATTR Value -30
SYMATTR InstName V1
SYMBOL res -48 64 R0
SYMATTR InstName R1
SYMATTR Value 10
SYMBOL res -48 208 R0
SYMATTR InstName R2
SYMATTR Value 10
SYMBOL res 512 64 R0
SYMATTR InstName R3
SYMATTR Value 10
SYMBOL res 512 208 R0
SYMATTR InstName R4
SYMATTR Value 10
SYMBOL nmos 16 288 R0
SYMATTR InstName M2
SYMATTR Value IRF1405
SYMBOL nmos 576 0 R0
SYMATTR InstName M3
SYMATTR Value IRF1405
SYMBOL nmos 576 288 R0
SYMATTR InstName M4
SYMATTR Value IRF1405
SYMBOL ind2 1152 160 R0
SYMATTR InstName L1
SYMATTR Value 10µ
SYMATTR Type ind
SYMBOL cap 1008 192 R0
WINDOW 3 37 29 Left 2
WINDOW 0 36 7 Left 2
SYMATTR Value 304.4n
SYMATTR InstName C1
SYMBOL cap 1136 160 R90
WINDOW 0 -23 29 VBottom 2
WINDOW 3 -25 3 VTop 2
SYMATTR InstName C2
SYMATTR Value 357.4n
SYMBOL ind2 1248 160 R0
SYMATTR InstName L3
SYMATTR Value 10µ
SYMATTR Type ind
SYMBOL ind 864 192 R270
WINDOW 0 32 56 VTop 2
WINDOW 3 5 56 VBottom 2
SYMATTR InstName L2
SYMATTR Value 1.85µ
SYMBOL cap 1376 192 R0
SYMATTR InstName C3
SYMATTR Value 112.58n
SYMBOL voltage -288 496 R0
WINDOW 3 -12 155 Left 2
WINDOW 123 0 0 Left 0
WINDOW 39 0 0 Left 0
SYMATTR Value PULSE(0 15 0 40n 20n {{D}*6.67u} 6.67u)
SYMATTR InstName V6
SYMBOL voltage -176 496 R0
WINDOW 3 -124 196 Left 2
WINDOW 123 0 0 Left 0
WINDOW 39 0 0 Left 0
SYMATTR Value PULSE(15 0 0 40n 20n {{D}*6.67u} 6.67u)
SYMATTR InstName V7
SYMBOL voltage -64 496 R0
WINDOW 3 -237 240 Left 2
WINDOW 123 0 0 Left 0
WINDOW 39 0 0 Left 0
SYMATTR Value PULSE(0 15 3.335u 40n 20n {{D}*6.67u} 6.67u)
SYMATTR InstName V8
SYMBOL voltage 48 496 R0
WINDOW 3 -349 282 Left 2
WINDOW 123 0 0 Left 0
WINDOW 39 0 0 Left 0
SYMATTR Value PULSE(15 0 3.335u 40n 20n {{D}*6.67u} 6.67u)
SYMATTR InstName V9
SYMBOL res 1488 160 R0
SYMATTR InstName R5
SYMATTR Value 50
SYMBOL ind 864 272 R270
WINDOW 0 32 56 VTop 2
WINDOW 3 5 56 VBottom 2
SYMATTR InstName L6
SYMATTR Value 1.85µ
SYMBOL cap 1136 240 R90
WINDOW 0 58 26 VBottom 2
WINDOW 3 52 1 VTop 2
SYMATTR InstName C4
SYMATTR Value 357.4n
SYMBOL cap 1376 304 R0
SYMATTR InstName C5
SYMATTR Value 112.58n
SYMBOL res 1488 272 R0
SYMATTR InstName R6
SYMATTR Value 50
SYMBOL ind2 1248 272 R0
SYMATTR InstName L7
SYMATTR Value 10µ
SYMATTR Type ind
TEXT 1184 128 Left 2 !K2 L1 L7 0.1
TEXT 280 640 Left 2 !.param D=0.5
TEXT 280 608 Left 2 !.tran 0 4m 3m
TEXT 1184 96 Left 2 !K1 L1 L3 0.1
